<?xml version="1.0" encoding="UTF-8"?>

<!-- generated on 2023-02-28 23:55:42.311047 by osmWebWizard.py v1_16_0+0000-94ec4c6cd72
<configuration>
    <allow-fringe.min-length value="1000.0"/>
    <begin value="0"/>
    <end value="3600"/>
    <fringe-factor value="6"/>
    <fringe-start-attributes value="departSpeed=&quot;max&quot;"/>
    <insertion-density value="5.0"/>
    <lanes value="True"/>
    <min-distance.fringe value="10.0"/>
    <min-distance value="300.0"/>
    <net-file value="C:\Users\JovanKrstic\Sumo\2023-02-28-23-55-12\osm.net.xml.gz"/>
    <remove-loops value="True"/>
    <route-file value="C:\Users\JovanKrstic\Sumo\2023-02-28-23-55-12\osm.passenger.rou.xml"/>
    <trip-attributes value="departLane=&quot;best&quot;"/>
    <output-trip-file value="C:\Users\JovanKrstic\Sumo\2023-02-28-23-55-12\osm.passenger.trips.xml"/>
    <prefix value="veh"/>
    <validate value="True"/>
    <vehicle-class value="passenger"/>
</configuration>
-->

<!-- generated on 2023-02-28 23:55:41 by Eclipse SUMO duarouter Version 1.16.0
<configuration xmlns:xsi="http://www.w3.org/2001/XMLSchema-instance" xsi:noNamespaceSchemaLocation="http://sumo.dlr.de/xsd/duarouterConfiguration.xsd">

    <input>
        <net-file value="C:\Users\JovanKrstic\Sumo\2023-02-28-23-55-12\osm.net.xml.gz"/>
        <route-files value="C:\Users\JovanKrstic\Sumo\2023-02-28-23-55-12\osm.passenger.trips.xml"/>
    </input>

    <output>
        <output-file value="C:\Users\JovanKrstic\Sumo\2023-02-28-23-55-12\osm.passenger.trips.xml.tmp"/>
        <alternatives-output value="NUL"/>
        <write-trips value="true"/>
    </output>

    <processing>
        <remove-loops value="true"/>
    </processing>

    <time>
        <begin value="0"/>
        <end value="3600"/>
    </time>

    <report>
        <no-warnings value="true"/>
        <ignore-errors value="true"/>
        <no-step-log value="true"/>
    </report>

</configuration>
-->

<routes xmlns:xsi="http://www.w3.org/2001/XMLSchema-instance" xsi:noNamespaceSchemaLocation="http://sumo.dlr.de/xsd/routes_file.xsd">
    <vType id="veh_passenger" vClass="passenger"/>
    <trip id="veh0" type="veh_passenger" depart="0.00" departLane="best" departSpeed="max" from="115573144" to="115573144"/>
    <trip id="veh1" type="veh_passenger" depart="1.46" departLane="best" from="-300122957#0" to="-170772575"/>
    <trip id="veh2" type="veh_passenger" depart="2.92" departLane="best" from="547151655" to="547151655"/>
    <trip id="veh3" type="veh_passenger" depart="4.38" departLane="best" from="103426225#10" to="-110280689#0"/>
    <trip id="veh4" type="veh_passenger" depart="5.84" departLane="best" departSpeed="max" from="-183206665#3" to="-183206665#3"/>
    <trip id="veh5" type="veh_passenger" depart="7.29" departLane="best" from="-1090867892#2" to="-116457542#3"/>
    <trip id="veh6" type="veh_passenger" depart="8.75" departLane="best" from="-115707025#4" to="115561198"/>
    <trip id="veh8" type="veh_passenger" depart="11.67" departLane="best" from="38359866#0" to="103426225#10"/>
    <trip id="veh9" type="veh_passenger" depart="13.13" departLane="best" from="38359854#0" to="38359854#0"/>
    <trip id="veh11" type="veh_passenger" depart="16.05" departLane="best" from="-518022423" to="-518022423"/>
    <trip id="veh12" type="veh_passenger" depart="17.51" departLane="best" from="-115561101" to="-115561101"/>
    <trip id="veh13" type="veh_passenger" depart="18.97" departLane="best" from="115573703#1" to="115573703#1"/>
    <trip id="veh14" type="veh_passenger" depart="20.42" departLane="best" from="38359858#1" to="-249079040#2"/>
    <trip id="veh15" type="veh_passenger" depart="21.88" departLane="best" departSpeed="max" from="931129794" to="931129794"/>
    <trip id="veh16" type="veh_passenger" depart="23.34" departLane="best" departSpeed="max" from="-723387977" to="115561231"/>
    <trip id="veh17" type="veh_passenger" depart="24.80" departLane="best" departSpeed="max" from="115707340#3" to="115707340#3"/>
    <trip id="veh18" type="veh_passenger" depart="26.26" departLane="best" from="115561381#0" to="115561381#0"/>
    <trip id="veh19" type="veh_passenger" depart="27.72" departLane="best" from="148331415#0" to="-1125927213#2"/>
    <trip id="veh20" type="veh_passenger" depart="29.18" departLane="best" from="-203589977#1" to="-38393876#0"/>
    <trip id="veh23" type="veh_passenger" depart="33.55" departLane="best" departSpeed="max" from="-771171380#1" to="-771171380#1"/>
    <trip id="veh24" type="veh_passenger" depart="35.01" departLane="best" departSpeed="max" from="-695310599" to="-136711815#0"/>
    <trip id="veh25" type="veh_passenger" depart="36.47" departLane="best" from="-279250264#2" to="771171380#5"/>
    <trip id="veh26" type="veh_passenger" depart="37.93" departLane="best" departSpeed="max" from="115685079#0" to="-115675457"/>
    <trip id="veh27" type="veh_passenger" depart="39.39" departLane="best" from="-115682646#0" to="243007677#1"/>
    <trip id="veh28" type="veh_passenger" depart="40.85" departLane="best" departSpeed="max" from="-115573703#1" to="-875027030"/>
    <trip id="veh29" type="veh_passenger" depart="42.31" departLane="best" from="944570453" to="-136711815#3"/>
    <trip id="veh30" type="veh_passenger" depart="43.77" departLane="best" from="115561134#7" to="-160729961#1"/>
    <trip id="veh31" type="veh_passenger" depart="45.23" departLane="best" from="296625908#2" to="296625908#2"/>
    <trip id="veh32" type="veh_passenger" depart="46.68" departLane="best" departSpeed="max" from="-221661052#3" to="110309284#1"/>
    <trip id="veh33" type="veh_passenger" depart="48.14" departLane="best" from="-417235694#12" to="-694591624"/>
    <trip id="veh34" type="veh_passenger" depart="49.60" departLane="best" departSpeed="max" from="-164415949" to="824134759#4"/>
    <trip id="veh35" type="veh_passenger" depart="51.06" departLane="best" from="-512824053#15" to="417235705#0"/>
    <trip id="veh36" type="veh_passenger" depart="52.52" departLane="best" from="115711054#1" to="1004737851#0"/>
    <trip id="veh37" type="veh_passenger" depart="53.98" departLane="best" from="671983122#7" to="110976861"/>
    <trip id="veh38" type="veh_passenger" depart="55.44" departLane="best" departSpeed="max" from="-279250254#2" to="-279250254#2"/>
    <trip id="veh39" type="veh_passenger" depart="56.90" departLane="best" from="115561170#1" to="-279250228"/>
    <trip id="veh40" type="veh_passenger" depart="58.36" departLane="best" departSpeed="max" from="115561264#0" to="667953163#4"/>
    <trip id="veh41" type="veh_passenger" depart="59.82" departLane="best" from="875071472" to="-154717185#1"/>
    <trip id="veh42" type="veh_passenger" depart="61.27" departLane="best" from="115561054#0" to="115561054#0"/>
    <trip id="veh43" type="veh_passenger" depart="62.73" departLane="best" from="-1125937899" to="-1125937899"/>
    <trip id="veh44" type="veh_passenger" depart="64.19" departLane="best" from="-115561187#1" to="-115561187#1"/>
    <trip id="veh45" type="veh_passenger" depart="65.65" departLane="best" from="296625907#3" to="-106651620#3"/>
    <trip id="veh46" type="veh_passenger" depart="67.11" departLane="best" from="-115560924#1" to="-115560924#1"/>
    <trip id="veh48" type="veh_passenger" depart="70.03" departLane="best" departSpeed="max" from="911225803" to="911225803"/>
    <trip id="veh49" type="veh_passenger" depart="71.49" departLane="best" from="-1057889821#0" to="203589976#1"/>
    <trip id="veh50" type="veh_passenger" depart="72.95" departLane="best" from="136711828#17" to="115561161#1"/>
    <trip id="veh51" type="veh_passenger" depart="74.40" departLane="best" from="-279250264#1" to="136711817"/>
    <trip id="veh52" type="veh_passenger" depart="75.86" departLane="best" departSpeed="max" from="108686154#0" to="839733694"/>
    <trip id="veh53" type="veh_passenger" depart="77.32" departLane="best" from="512824053#13" to="512824053#13"/>
    <trip id="veh54" type="veh_passenger" depart="78.78" departLane="best" from="-115573703#0" to="-115573703#0"/>
    <trip id="veh55" type="veh_passenger" depart="80.24" departLane="best" from="667953163#5" to="667953163#5"/>
    <trip id="veh56" type="veh_passenger" depart="81.70" departLane="best" from="-39258026#1" to="-136711815#12"/>
    <trip id="veh57" type="veh_passenger" depart="83.16" departLane="best" from="115561377" to="-115561393#1"/>
    <trip id="veh58" type="veh_passenger" depart="84.62" departLane="best" from="115561179#10" to="115561179#10"/>
    <trip id="veh60" type="veh_passenger" depart="87.53" departLane="best" from="1004737851#0" to="459456564#0"/>
    <trip id="veh61" type="veh_passenger" depart="88.99" departLane="best" from="-108223780#1" to="723387977"/>
    <trip id="veh62" type="veh_passenger" depart="90.45" departLane="best" from="417219930" to="417219930"/>
    <trip id="veh63" type="veh_passenger" depart="91.91" departLane="best" from="-115516481#1" to="-115516481#1"/>
    <trip id="veh64" type="veh_passenger" depart="93.37" departLane="best" from="824174717#0" to="824174717#0"/>
    <trip id="veh65" type="veh_passenger" depart="94.83" departLane="best" from="115561074#7" to="115560895#0"/>
    <trip id="veh66" type="veh_passenger" depart="96.29" departLane="best" from="279250231" to="279250231"/>
    <trip id="veh67" type="veh_passenger" depart="97.75" departLane="best" departSpeed="max" from="-115561262#2" to="-115561262#2"/>
    <trip id="veh68" type="veh_passenger" depart="99.21" departLane="best" from="110601307#1" to="-115561216#2"/>
    <trip id="veh69" type="veh_passenger" depart="100.66" departLane="best" departSpeed="max" from="-279250254#2" to="-279250254#2"/>
    <trip id="veh70" type="veh_passenger" depart="102.12" departLane="best" from="103426225#9" to="-136711815#7"/>
    <trip id="veh71" type="veh_passenger" depart="103.58" departLane="best" from="251566867#1" to="251566867#1"/>
    <trip id="veh73" type="veh_passenger" depart="106.50" departLane="best" from="953080530#0" to="953080530#0"/>
    <trip id="veh74" type="veh_passenger" depart="107.96" departLane="best" from="1059235861" to="-115561074#9"/>
    <trip id="veh75" type="veh_passenger" depart="109.42" departLane="best" from="-115561256" to="-182753736#4"/>
    <trip id="veh76" type="veh_passenger" depart="110.88" departLane="best" from="-512824053#13" to="-512824053#13"/>
    <trip id="veh77" type="veh_passenger" depart="112.34" departLane="best" from="-221857696#6" to="-221857696#6"/>
    <trip id="veh78" type="veh_passenger" depart="113.79" departLane="best" from="116901755#1" to="116901755#1"/>
    <trip id="veh79" type="veh_passenger" depart="115.25" departLane="best" departSpeed="max" from="-221661052#3" to="-221661052#3"/>
    <trip id="veh80" type="veh_passenger" depart="116.71" departLane="best" from="-115560988#1" to="-115560988#1"/>
    <trip id="veh81" type="veh_passenger" depart="118.17" departLane="best" from="-251678535" to="-251678535"/>
    <trip id="veh82" type="veh_passenger" depart="119.63" departLane="best" departSpeed="max" from="-182023665" to="-115561277#2"/>
    <trip id="veh83" type="veh_passenger" depart="121.09" departLane="best" from="725287635#2" to="725287635#2"/>
    <trip id="veh84" type="veh_passenger" depart="122.55" departLane="best" from="110586521#0" to="110586521#0"/>
    <trip id="veh85" type="veh_passenger" depart="124.01" departLane="best" from="-38359863#0" to="-115707445"/>
    <trip id="veh87" type="veh_passenger" depart="126.92" departLane="best" from="104591404#1" to="1125927212#3"/>
    <trip id="veh88" type="veh_passenger" depart="128.38" departLane="best" from="185549291#0" to="148331416#1"/>
    <trip id="veh90" type="veh_passenger" depart="131.30" departLane="best" from="-530847888#0" to="-530847888#0"/>
    <trip id="veh92" type="veh_passenger" depart="134.22" departLane="best" departSpeed="max" from="-116901757" to="110279297"/>
    <trip id="veh93" type="veh_passenger" depart="135.68" departLane="best" from="103426225#10" to="103426225#10"/>
    <trip id="veh94" type="veh_passenger" depart="137.14" departLane="best" from="723312334#3" to="723312334#3"/>
    <trip id="veh95" type="veh_passenger" depart="138.60" departLane="best" from="1068837569#0" to="1068837569#0"/>
    <trip id="veh96" type="veh_passenger" depart="140.05" departLane="best" from="-113593056#2" to="-113593056#2"/>
    <trip id="veh97" type="veh_passenger" depart="141.51" departLane="best" departSpeed="max" from="995561141" to="995561141"/>
    <trip id="veh98" type="veh_passenger" depart="142.97" departLane="best" departSpeed="max" from="723368957#0" to="723368957#0"/>
    <trip id="veh99" type="veh_passenger" depart="144.43" departLane="best" from="-417216187#2" to="-115561648#1"/>
    <trip id="veh100" type="veh_passenger" depart="145.89" departLane="best" from="1125927212#1" to="1125927212#1"/>
    <trip id="veh101" type="veh_passenger" depart="147.35" departLane="best" from="-115517342#1" to="-115517342#1"/>
    <trip id="veh102" type="veh_passenger" depart="148.81" departLane="best" departSpeed="max" from="-723387977" to="931476041"/>
    <trip id="veh103" type="veh_passenger" depart="150.27" departLane="best" from="279250260#1" to="-328746429#0"/>
    <trip id="veh104" type="veh_passenger" depart="151.73" departLane="best" departSpeed="max" from="108882988" to="1068837568#1"/>
    <trip id="veh106" type="veh_passenger" depart="154.64" departLane="best" from="203589970#0" to="203589970#0"/>
    <trip id="veh107" type="veh_passenger" depart="156.10" departLane="best" from="-413878170#2" to="-413878170#2"/>
    <trip id="veh108" type="veh_passenger" depart="157.56" departLane="best" departSpeed="max" from="115561388#2" to="115561388#2"/>
    <trip id="veh109" type="veh_passenger" depart="159.02" departLane="best" departSpeed="max" from="266143655#4" to="266143655#4"/>
    <trip id="veh110" type="veh_passenger" depart="160.48" departLane="best" from="-115516481#0" to="-115516481#0"/>
    <trip id="veh111" type="veh_passenger" depart="161.94" departLane="best" from="115517342#1" to="453743055"/>
    <trip id="veh112" type="veh_passenger" depart="163.40" departLane="best" from="-115561669#1" to="87497334#8"/>
    <trip id="veh113" type="veh_passenger" depart="164.86" departLane="best" from="-115684382#0" to="-115684382#0"/>
    <trip id="veh114" type="veh_passenger" depart="166.32" departLane="best" from="115561298#0" to="148331421#2-AddedOnRampEdge"/>
    <trip id="veh115" type="veh_passenger" depart="167.77" departLane="best" departSpeed="max" from="-251566880#5" to="-115561228"/>
    <trip id="veh116" type="veh_passenger" depart="169.23" departLane="best" from="545148174#2" to="545148174#2"/>
    <trip id="veh117" type="veh_passenger" depart="170.69" departLane="best" departSpeed="max" from="115708397" to="115708397"/>
    <trip id="veh118" type="veh_passenger" depart="172.15" departLane="best" from="101152389" to="101152389"/>
    <trip id="veh120" type="veh_passenger" depart="175.07" departLane="best" from="203589962#1" to="203589962#1"/>
    <trip id="veh121" type="veh_passenger" depart="176.53" departLane="best" from="1004737853#1" to="1004737853#1"/>
    <trip id="veh122" type="veh_passenger" depart="177.99" departLane="best" from="-417114091#3" to="-417114091#3"/>
    <trip id="veh123" type="veh_passenger" depart="179.45" departLane="best" from="-417235694#8" to="-417235694#8"/>
    <trip id="veh125" type="veh_passenger" depart="182.36" departLane="best" from="988510417#2" to="988510417#2"/>
    <trip id="veh126" type="veh_passenger" depart="183.82" departLane="best" from="-138652739#2" to="-138652739#2"/>
    <trip id="veh127" type="veh_passenger" depart="185.28" departLane="best" from="279250260#1" to="758491219"/>
    <trip id="veh128" type="veh_passenger" depart="186.74" departLane="best" from="547146213#0" to="547146213#0"/>
    <trip id="veh130" type="veh_passenger" depart="189.66" departLane="best" from="41522843#1" to="185549295#1"/>
    <trip id="veh131" type="veh_passenger" depart="191.12" departLane="best" from="944388520" to="944388520"/>
    <trip id="veh132" type="veh_passenger" depart="192.58" departLane="best" departSpeed="max" from="115710482#0" to="-104591404#0"/>
    <trip id="veh133" type="veh_passenger" depart="194.03" departLane="best" from="-38393872#3" to="-417114091#1"/>
    <trip id="veh135" type="veh_passenger" depart="196.95" departLane="best" from="-115561205#2" to="-115561205#2"/>
    <trip id="veh136" type="veh_passenger" depart="198.41" departLane="best" from="115561179#6" to="115561235#1"/>
    <trip id="veh137" type="veh_passenger" depart="199.87" departLane="best" from="-293601044#1" to="-293601044#1"/>
    <trip id="veh138" type="veh_passenger" depart="201.33" departLane="best" from="164415954#0" to="164415954#0"/>
    <trip id="veh141" type="veh_passenger" depart="205.71" departLane="best" from="417192342#3" to="115561092"/>
    <trip id="veh142" type="veh_passenger" depart="207.16" departLane="best" from="104591404#1" to="-30951799#0"/>
    <trip id="veh143" type="veh_passenger" depart="208.62" departLane="best" from="-101148919#1" to="-101148919#1"/>
    <trip id="veh144" type="veh_passenger" depart="210.08" departLane="best" from="-279250215#4" to="-279250215#4"/>
    <trip id="veh145" type="veh_passenger" depart="211.54" departLane="best" from="115561231" to="115561231"/>
    <trip id="veh146" type="veh_passenger" depart="213.00" departLane="best" from="-1057886304#3" to="-1057886304#3"/>
    <trip id="veh147" type="veh_passenger" depart="214.46" departLane="best" from="-115561021#5" to="547247957#4"/>
    <trip id="veh148" type="veh_passenger" depart="215.92" departLane="best" from="570104368#2" to="-115561202#0"/>
    <trip id="veh149" type="veh_passenger" depart="217.38" departLane="best" from="417114091#2" to="417114091#2"/>
    <trip id="veh150" type="veh_passenger" depart="218.84" departLane="best" from="-115561258#1" to="-115561258#1"/>
    <trip id="veh151" type="veh_passenger" depart="220.29" departLane="best" from="667958192" to="667958192"/>
    <trip id="veh152" type="veh_passenger" depart="221.75" departLane="best" from="30951786" to="30951786"/>
    <trip id="veh153" type="veh_passenger" depart="223.21" departLane="best" from="548038426#1" to="-136711815#10"/>
    <trip id="veh155" type="veh_passenger" depart="226.13" departLane="best" from="547266341#0" to="547266341#0"/>
    <trip id="veh156" type="veh_passenger" depart="227.59" departLane="best" from="-931388876#2" to="-931388876#2"/>
    <trip id="veh157" type="veh_passenger" depart="229.05" departLane="best" from="-115561653#0" to="38375828#1"/>
    <trip id="veh158" type="veh_passenger" depart="230.51" departLane="best" from="-422195696" to="-931220687#2"/>
    <trip id="veh159" type="veh_passenger" depart="231.97" departLane="best" from="547154357#2" to="547154357#2"/>
    <trip id="veh160" type="veh_passenger" depart="233.42" departLane="best" from="-108951366#0" to="-108951366#0"/>
    <trip id="veh161" type="veh_passenger" depart="234.88" departLane="best" departSpeed="max" from="-466365026" to="725287635#1"/>
    <trip id="veh162" type="veh_passenger" depart="236.34" departLane="best" from="357169466#3" to="-512824053#12"/>
    <trip id="veh163" type="veh_passenger" depart="237.80" departLane="best" from="-279250262#0" to="-279250262#0"/>
    <trip id="veh164" type="veh_passenger" depart="239.26" departLane="best" from="-115561168#6" to="-115561168#6"/>
    <trip id="veh165" type="veh_passenger" depart="240.72" departLane="best" departSpeed="max" from="466369464#2" to="466369464#2"/>
    <trip id="veh167" type="veh_passenger" depart="243.64" departLane="best" from="1090714596#0" to="1090714596#0"/>
    <trip id="veh168" type="veh_passenger" depart="245.10" departLane="best" departSpeed="max" from="303979251#0" to="303979251#0"/>
    <trip id="veh169" type="veh_passenger" depart="246.56" departLane="best" from="-108942988#3" to="-108942988#3"/>
    <trip id="veh170" type="veh_passenger" depart="248.01" departLane="best" from="-459456559#2" to="512824053#13"/>
    <trip id="veh171" type="veh_passenger" depart="249.47" departLane="best" from="875110119#1" to="875110119#1"/>
    <trip id="veh172" type="veh_passenger" depart="250.93" departLane="best" from="1013157423" to="1013157423"/>
    <trip id="veh173" type="veh_passenger" depart="252.39" departLane="best" from="931378513" to="931378513"/>
    <trip id="veh174" type="veh_passenger" depart="253.85" departLane="best" from="-771171380#1" to="115561205#2"/>
    <trip id="veh175" type="veh_passenger" depart="255.31" departLane="best" from="910092575" to="-115573144"/>
    <trip id="veh176" type="veh_passenger" depart="256.77" departLane="best" from="875070295" to="279250254#0"/>
    <trip id="veh177" type="veh_passenger" depart="258.23" departLane="best" from="-115561180#7" to="108885733#1"/>
    <trip id="veh178" type="veh_passenger" depart="259.69" departLane="best" from="185546464#1" to="417235694#3"/>
    <trip id="veh182" type="veh_passenger" depart="265.52" departLane="best" from="1004737861#0" to="723313369#4"/>
    <trip id="veh183" type="veh_passenger" depart="266.98" departLane="best" from="203589972#1" to="203589972#1"/>
    <trip id="veh185" type="veh_passenger" depart="269.90" departLane="best" departSpeed="max" from="-115560987" to="-115560987"/>
    <trip id="veh186" type="veh_passenger" depart="271.36" departLane="best" from="-512824053#17" to="-512824053#17"/>
    <trip id="veh187" type="veh_passenger" depart="272.82" departLane="best" from="422195690" to="422195690"/>
    <trip id="veh188" type="veh_passenger" depart="274.27" departLane="best" from="170772573#1" to="417114095#0"/>
    <trip id="veh190" type="veh_passenger" depart="277.19" departLane="best" from="-875149911#0" to="-39258027#3"/>
    <trip id="veh191" type="veh_passenger" depart="278.65" departLane="best" from="-115561299#1" to="-115561299#1"/>
    <trip id="veh192" type="veh_passenger" depart="280.11" departLane="best" from="782551575#1" to="152481167#0"/>
    <trip id="veh193" type="veh_passenger" depart="281.57" departLane="best" from="548216293#4" to="-115685079#1"/>
    <trip id="veh194" type="veh_passenger" depart="283.03" departLane="best" from="413878170#3" to="115561213"/>
    <trip id="veh195" type="veh_passenger" depart="284.49" departLane="best" from="1057883201#1" to="1057883201#1"/>
    <trip id="veh196" type="veh_passenger" depart="285.95" departLane="best" from="112385801#3" to="112385801#3"/>
    <trip id="veh197" type="veh_passenger" depart="287.40" departLane="best" from="1068837568#0" to="1068837568#0"/>
    <trip id="veh198" type="veh_passenger" depart="288.86" departLane="best" from="110596398#0" to="110596398#0"/>
    <trip id="veh199" type="veh_passenger" depart="290.32" departLane="best" from="30951786" to="-115561669#0"/>
    <trip id="veh200" type="veh_passenger" depart="291.78" departLane="best" from="115561074#10" to="115561068"/>
    <trip id="veh202" type="veh_passenger" depart="294.70" departLane="best" from="38393951#3" to="38393951#3"/>
    <trip id="veh203" type="veh_passenger" depart="296.16" departLane="best" from="-135704135#2" to="-182753736#3"/>
    <trip id="veh204" type="veh_passenger" depart="297.62" departLane="best" from="138652733" to="108947813#0"/>
    <trip id="veh205" type="veh_passenger" depart="299.08" departLane="best" from="-254747695#1" to="-254747695#1"/>
    <trip id="veh206" type="veh_passenger" depart="300.53" departLane="best" from="417228502#1" to="417228502#1"/>
    <trip id="veh207" type="veh_passenger" depart="301.99" departLane="best" from="1004378912#0" to="116650845"/>
    <trip id="veh208" type="veh_passenger" depart="303.45" departLane="best" from="183206665#3" to="183206665#3"/>
    <trip id="veh209" type="veh_passenger" depart="304.91" departLane="best" from="114533140#2" to="114533140#2"/>
    <trip id="veh210" type="veh_passenger" depart="306.37" departLane="best" departSpeed="max" from="-1026642569#0" to="-1026642569#0"/>
    <trip id="veh211" type="veh_passenger" depart="307.83" departLane="best" from="221661052#1" to="221661052#1"/>
    <trip id="veh212" type="veh_passenger" depart="309.29" departLane="best" from="-115561179#2" to="1068841510#2"/>
    <trip id="veh213" type="veh_passenger" depart="310.75" departLane="best" from="-115707025#2" to="87494508#1"/>
    <trip id="veh214" type="veh_passenger" depart="312.21" departLane="best" departSpeed="max" from="-113590805#1" to="-113590805#1"/>
    <trip id="veh215" type="veh_passenger" depart="313.66" departLane="best" from="422195696" to="422195696"/>
    <trip id="veh216" type="veh_passenger" depart="315.12" departLane="best" departSpeed="max" from="108895901#0" to="38375844#3"/>
    <trip id="veh217" type="veh_passenger" depart="316.58" departLane="best" departSpeed="max" from="944388522#1" to="944388522#1"/>
    <trip id="veh218" type="veh_passenger" depart="318.04" departLane="best" from="115561298#3" to="115561298#3"/>
    <trip id="veh219" type="veh_passenger" depart="319.50" departLane="best" from="875113282#1" to="115684382#1"/>
    <trip id="veh221" type="veh_passenger" depart="322.42" departLane="best" from="-38375834#2" to="-115561212"/>
    <trip id="veh222" type="veh_passenger" depart="323.88" departLane="best" from="547266341#0" to="-256292680"/>
    <trip id="veh224" type="veh_passenger" depart="326.79" departLane="best" from="266143655#2" to="135704132#1"/>
    <trip id="veh226" type="veh_passenger" depart="329.71" departLane="best" from="115561652#0" to="115561652#0"/>
    <trip id="veh227" type="veh_passenger" depart="331.17" departLane="best" from="-38375826" to="-38375826"/>
    <trip id="veh228" type="veh_passenger" depart="332.63" departLane="best" from="-293290813" to="-293290813"/>
    <trip id="veh229" type="veh_passenger" depart="334.09" departLane="best" from="115561074#2" to="115561074#2"/>
    <trip id="veh230" type="veh_passenger" depart="335.55" departLane="best" from="-243008519" to="-243008519"/>
    <trip id="veh231" type="veh_passenger" depart="337.01" departLane="best" from="148331421#0" to="-115560931#2"/>
    <trip id="veh232" type="veh_passenger" depart="338.47" departLane="best" from="115561183" to="115561183"/>
    <trip id="veh233" type="veh_passenger" depart="339.92" departLane="best" from="1004737861#0" to="-116980612#1"/>
    <trip id="veh234" type="veh_passenger" depart="341.38" departLane="best" from="1026642569#2" to="1026642569#2"/>
    <trip id="veh235" type="veh_passenger" depart="342.84" departLane="best" departSpeed="max" from="115561264#0" to="115561264#0"/>
    <trip id="veh236" type="veh_passenger" depart="344.30" departLane="best" from="417235727#0" to="279250254#2"/>
    <trip id="veh237" type="veh_passenger" depart="345.76" departLane="best" from="-1026642572" to="-1026642572"/>
    <trip id="veh238" type="veh_passenger" depart="347.22" departLane="best" from="279156921" to="279156921"/>
    <trip id="veh239" type="veh_passenger" depart="348.68" departLane="best" from="417228579#0" to="417228579#0"/>
    <trip id="veh240" type="veh_passenger" depart="350.14" departLane="best" from="266143653" to="266143653"/>
    <trip id="veh241" type="veh_passenger" depart="351.60" departLane="best" from="115572975#1" to="115572975#1"/>
    <trip id="veh242" type="veh_passenger" depart="353.06" departLane="best" from="-154717185#3" to="-154717185#3"/>
    <trip id="veh243" type="veh_passenger" depart="354.51" departLane="best" from="1057896066#0" to="-109876479#0"/>
    <trip id="veh244" type="veh_passenger" depart="355.97" departLane="best" departSpeed="max" from="152481173" to="152481173"/>
    <trip id="veh246" type="veh_passenger" depart="358.89" departLane="best" from="1100674755" to="1100674755"/>
    <trip id="veh247" type="veh_passenger" depart="360.35" departLane="best" departSpeed="max" from="115561573" to="1090867892#7"/>
    <trip id="veh248" type="veh_passenger" depart="361.81" departLane="best" from="839896283#6" to="115561298#6"/>
    <trip id="veh249" type="veh_passenger" depart="363.27" departLane="best" from="1090867892#8" to="136711821#6"/>
    <trip id="veh250" type="veh_passenger" depart="364.73" departLane="best" from="111836244#0" to="111836244#0"/>
    <trip id="veh251" type="veh_passenger" depart="366.19" departLane="best" departSpeed="max" from="-1137637521#2" to="-875027029#1"/>
    <trip id="veh252" type="veh_passenger" depart="367.64" departLane="best" from="-875027029#1" to="-875027029#1"/>
    <trip id="veh253" type="veh_passenger" depart="369.10" departLane="best" from="-221857696#6" to="417228502#0"/>
    <trip id="veh254" type="veh_passenger" depart="370.56" departLane="best" departSpeed="max" from="-115561054#2" to="-115561054#2"/>
    <trip id="veh255" type="veh_passenger" depart="372.02" departLane="best" from="108223780#0" to="-115561179#11"/>
    <trip id="veh256" type="veh_passenger" depart="373.48" departLane="best" from="-99682907#3" to="-571185339"/>
    <trip id="veh257" type="veh_passenger" depart="374.94" departLane="best" from="115707206#0" to="30951786"/>
    <trip id="veh258" type="veh_passenger" depart="376.40" departLane="best" departSpeed="max" from="115707445" to="115707445"/>
    <trip id="veh259" type="veh_passenger" depart="377.86" departLane="best" from="266143653" to="-116457545#0"/>
    <trip id="veh260" type="veh_passenger" depart="379.32" departLane="best" departSpeed="max" from="-108686053#1" to="-115561388#1"/>
    <trip id="veh262" type="veh_passenger" depart="382.23" departLane="best" from="115561180#3" to="115561180#3"/>
    <trip id="veh263" type="veh_passenger" depart="383.69" departLane="best" from="279250262#3" to="279250262#3"/>
    <trip id="veh264" type="veh_passenger" depart="385.15" departLane="best" from="115673962#1" to="115673859"/>
    <trip id="veh265" type="veh_passenger" depart="386.61" departLane="best" from="203589976#1" to="-115561202#2"/>