<?xml version="1.0" encoding="UTF-8"?>

<!-- generated on 2023-02-28 23:55:37.496593 by osmWebWizard.py v1_16_0+0000-94ec4c6cd72
<configuration>
    <begin value="0"/>
    <end value="3600"/>
    <fringe-factor value="2"/>
    <fringe-start-attributes value="departSpeed=&quot;max&quot;"/>
    <insertion-density value="6.0"/>
    <max-distance value="8000.0"/>
    <net-file value="C:\Users\JovanKrstic\Sumo\2023-02-28-23-55-12\osm.net.xml.gz"/>
    <remove-loops value="True"/>
    <route-file value="C:\Users\JovanKrstic\Sumo\2023-02-28-23-55-12\osm.bicycle.rou.xml"/>
    <trip-attributes value="departLane=&quot;best&quot;"/>
    <output-trip-file value="C:\Users\JovanKrstic\Sumo\2023-02-28-23-55-12\osm.bicycle.trips.xml"/>
    <prefix value="bike"/>
    <validate value="True"/>
    <vclass value="bicycle"/>
    <vehicle-class value="bicycle"/>
</configuration>
-->

<!-- generated on 2023-02-28 23:55:34 by Eclipse SUMO duarouter Version 1.16.0
<configuration xmlns:xsi="http://www.w3.org/2001/XMLSchema-instance" xsi:noNamespaceSchemaLocation="http://sumo.dlr.de/xsd/duarouterConfiguration.xsd">

    <input>
        <net-file value="C:\Users\JovanKrstic\Sumo\2023-02-28-23-55-12\osm.net.xml.gz"/>
        <route-files value="C:\Users\JovanKrstic\Sumo\2023-02-28-23-55-12\osm.bicycle.trips.xml"/>
    </input>

    <output>
        <output-file value="C:\Users\JovanKrstic\Sumo\2023-02-28-23-55-12\osm.bicycle.trips.xml.tmp"/>
        <alternatives-output value="NUL"/>
        <write-trips value="true"/>
    </output>

    <processing>
        <remove-loops value="true"/>
    </processing>

    <time>
        <begin value="0"/>
        <end value="3600"/>
    </time>

    <report>
        <no-warnings value="true"/>
        <ignore-errors value="true"/>
        <no-step-log value="true"/>
    </report>

</configuration>
-->

<routes xmlns:xsi="http://www.w3.org/2001/XMLSchema-instance" xsi:noNamespaceSchemaLocation="http://sumo.dlr.de/xsd/routes_file.xsd">
    <vType id="bike_bicycle" vClass="bicycle"/>
    <trip id="bike0" type="bike_bicycle" depart="0.00" departLane="best" from="-1071262612#0" to="-1071262612#0"/>
    <trip id="bike2" type="bike_bicycle" depart="1.56" departLane="best" departSpeed="max" from="203589977#2" to="203589977#2"/>
    <trip id="bike5" type="bike_bicycle" depart="3.90" departLane="best" from="110596398#5" to="110596398#5"/>
    <trip id="bike8" type="bike_bicycle" depart="6.24" departLane="best" from="-251566881#1" to="-115561324#0"/>
    <trip id="bike9" type="bike_bicycle" depart="7.02" departLane="best" from="38359866#2" to="-1019932461#1"/>
    <trip id="bike10" type="bike_bicycle" depart="7.79" departLane="best" from="-38359845" to="-251684194#1"/>
    <trip id="bike11" type="bike_bicycle" depart="8.57" departLane="best" departSpeed="max" from="-115981227" to="-115981227"/>
    <trip id="bike12" type="bike_bicycle" depart="9.35" departLane="best" from="-910092575" to="570095832#1"/>
    <trip id="bike13" type="bike_bicycle" depart="10.13" departLane="best" from="-115517342#0" to="-115561112#3"/>
    <trip id="bike14" type="bike_bicycle" depart="10.91" departLane="best" from="-422195696" to="-115561648#2"/>
    <trip id="bike15" type="bike_bicycle" depart="11.69" departLane="best" from="-38359854#4" to="279250250"/>
    <trip id="bike16" type="bike_bicycle" depart="12.47" departLane="best" from="110285648#0" to="110285648#0"/>
    <trip id="bike17" type="bike_bicycle" depart="13.25" departLane="best" departSpeed="max" from="-570095832#2" to="115561078"/>
    <trip id="bike18" type="bike_bicycle" depart="14.03" departLane="best" from="41522843#0" to="-115707206#1"/>
    <trip id="bike19" type="bike_bicycle" depart="14.81" departLane="best" from="115561246" to="115561246"/>
    <trip id="bike20" type="bike_bicycle" depart="15.59" departLane="best" from="-110309284#1" to="-110309284#1"/>
    <trip id="bike21" type="bike_bicycle" depart="16.37" departLane="best" departSpeed="max" from="-417216187#2" to="-417216187#2"/>
    <trip id="bike23" type="bike_bicycle" depart="17.93" departLane="best" from="-115560988#0" to="405112892"/>
    <trip id="bike24" type="bike_bicycle" depart="18.71" departLane="best" from="115561299#4" to="-758246547"/>
    <trip id="bike25" type="bike_bicycle" depart="19.49" departLane="best" from="-547247957#6" to="-264337510#5"/>
    <trip id="bike26" type="bike_bicycle" depart="20.27" departLane="best" departSpeed="max" from="-290406174" to="-290406174"/>
    <trip id="bike27" type="bike_bicycle" depart="21.05" departLane="best" from="115561673#0" to="115561673#0"/>
    <trip id="bike28" type="bike_bicycle" depart="21.82" departLane="best" from="-115684392" to="279250244"/>
    <trip id="bike29" type="bike_bicycle" depart="22.60" departLane="best" from="-87497334#10" to="-87497334#10"/>
    <trip id="bike30" type="bike_bicycle" depart="23.38" departLane="best" from="138652753#6" to="138652753#6"/>
    <trip id="bike31" type="bike_bicycle" depart="24.16" departLane="best" from="113595957#0" to="113595957#0"/>
    <trip id="bike32" type="bike_bicycle" depart="24.94" departLane="best" from="-417235727#2" to="357170567#0"/>
    <trip id="bike33" type="bike_bicycle" depart="25.72" departLane="best" from="-253106103#0" to="-253106103#0"/>
    <trip id="bike34" type="bike_bicycle" depart="26.50" departLane="best" departSpeed="max" from="-413692972" to="38359868#3"/>
    <trip id="bike35" type="bike_bicycle" depart="27.28" departLane="best" from="221857696#2" to="87494508#3"/>
    <trip id="bike36" type="bike_bicycle" depart="28.06" departLane="best" departSpeed="max" from="-518368619" to="-518368619"/>
    <trip id="bike38" type="bike_bicycle" depart="29.62" departLane="best" from="694603075#6" to="-1066053875"/>
    <trip id="bike39" type="bike_bicycle" depart="30.40" departLane="best" from="-290406161#0" to="-290406161#0"/>
    <trip id="bike40" type="bike_bicycle" depart="31.18" departLane="best" from="114614791" to="-350860677#6"/>
    <trip id="bike41" type="bike_bicycle" depart="31.96" departLane="best" from="694598302" to="694598302"/>
    <trip id="bike42" type="bike_bicycle" depart="32.74" departLane="best" from="-694598296" to="-694598296"/>
    <trip id="bike43" type="bike_bicycle" depart="33.52" departLane="best" from="-995558707#0" to="111321588#2"/>
    <trip id="bike44" type="bike_bicycle" depart="34.30" departLane="best" from="-114613770#8" to="-1103899579"/>
    <trip id="bike45" type="bike_bicycle" depart="35.08" departLane="best" from="116980609#0" to="116980609#0"/>
    <trip id="bike46" type="bike_bicycle" depart="35.86" departLane="best" from="303979247#1" to="1007123423#1"/>
    <trip id="bike47" type="bike_bicycle" depart="36.63" departLane="best" from="-1089752630#0" to="-1089752630#0"/>
    <trip id="bike48" type="bike_bicycle" depart="37.41" departLane="best" from="988510423#1" to="115560895#0"/>
    <trip id="bike49" type="bike_bicycle" depart="38.19" departLane="best" from="945407749#6" to="545665483#0"/>
    <trip id="bike50" type="bike_bicycle" depart="38.97" departLane="best" departSpeed="max" from="-1023323468" to="-1023323468"/>
    <trip id="bike52" type="bike_bicycle" depart="40.53" departLane="best" departSpeed="max" from="-290406171#1" to="-290406171#1"/>
    <trip id="bike53" type="bike_bicycle" depart="41.31" departLane="best" from="-115561074#1" to="1026541486"/>
    <trip id="bike55" type="bike_bicycle" depart="42.87" departLane="best" departSpeed="max" from="-357167355#0" to="-357167355#0"/>
    <trip id="bike56" type="bike_bicycle" depart="43.65" departLane="best" from="1057883201#0" to="1057883201#0"/>
    <trip id="bike57" type="bike_bicycle" depart="44.43" departLane="best" from="691536025#0" to="549790817"/>
    <trip id="bike58" type="bike_bicycle" depart="45.21" departLane="best" departSpeed="max" from="-357170568" to="-357170568"/>
    <trip id="bike59" type="bike_bicycle" depart="45.99" departLane="best" departSpeed="max" from="115561185" to="-115707750#0"/>
    <trip id="bike60" type="bike_bicycle" depart="46.77" departLane="best" from="279250255#1" to="114150961#3"/>
    <trip id="bike61" type="bike_bicycle" depart="47.55" departLane="best" from="115560899" to="115560899"/>
    <trip id="bike62" type="bike_bicycle" depart="48.33" departLane="best" departSpeed="max" from="-1004374569" to="529429879"/>
    <trip id="bike63" type="bike_bicycle" depart="49.11" departLane="best" from="-1030215625#0" to="814561004"/>
    <trip id="bike64" type="bike_bicycle" depart="49.89" departLane="best" from="529450290#0" to="529450290#0"/>
    <trip id="bike65" type="bike_bicycle" depart="50.66" departLane="best" from="-38691386#11" to="-38691386#11"/>
    <trip id="bike66" type="bike_bicycle" depart="51.44" departLane="best" from="529450285#0" to="875074258#0"/>
    <trip id="bike67" type="bike_bicycle" depart="52.22" departLane="best" from="-1125937896#1" to="-108899907#0"/>
    <trip id="bike68" type="bike_bicycle" depart="53.00" departLane="best" from="110281572#3" to="302169816#2"/>
    <trip id="bike71" type="bike_bicycle" depart="55.34" departLane="best" from="-290406161#2" to="-290406161#2"/>
    <trip id="bike72" type="bike_bicycle" depart="56.12" departLane="best" from="-814306749#0" to="-264480094#0"/>
    <trip id="bike75" type="bike_bicycle" depart="58.46" departLane="best" departSpeed="max" from="987417893" to="-148331417"/>
    <trip id="bike76" type="bike_bicycle" depart="59.24" departLane="best" from="112602521" to="112602521"/>
    <trip id="bike77" type="bike_bicycle" depart="60.02" departLane="best" from="-279250228" to="-279250228"/>
    <trip id="bike78" type="bike_bicycle" depart="60.80" departLane="best" departSpeed="max" from="115561316#10" to="115561316#10"/>
    <trip id="bike79" type="bike_bicycle" depart="61.58" departLane="best" from="-254282888" to="278402156#0"/>
    <trip id="bike80" type="bike_bicycle" depart="62.36" departLane="best" from="135704132#1" to="135704132#1"/>
    <trip id="bike82" type="bike_bicycle" depart="63.92" departLane="best" from="-115560891#4" to="-115560891#4"/>
    <trip id="bike83" type="bike_bicycle" depart="64.70" departLane="best" from="264480785#5" to="185549299#0"/>
    <trip id="bike85" type="bike_bicycle" depart="66.25" departLane="best" from="115561194#1" to="115561194#1"/>
    <trip id="bike86" type="bike_bicycle" depart="67.03" departLane="best" from="-982178278#0" to="38375828#3"/>
    <trip id="bike87" type="bike_bicycle" depart="67.81" departLane="best" from="38359857#1" to="234555288#3"/>
    <trip id="bike88" type="bike_bicycle" depart="68.59" departLane="best" from="-115560924#1" to="1024481476"/>
    <trip id="bike89" type="bike_bicycle" depart="69.37" departLane="best" departSpeed="max" from="-814534962" to="1069245846"/>
    <trip id="bike90" type="bike_bicycle" depart="70.15" departLane="best" from="-251566879#2" to="203589957"/>
    <trip id="bike91" type="bike_bicycle" depart="70.93" departLane="best" departSpeed="max" from="960082450" to="960082450"/>
    <trip id="bike92" type="bike_bicycle" depart="71.71" departLane="best" departSpeed="max" from="-694764175#1" to="-571185336"/>
    <trip id="bike93" type="bike_bicycle" depart="72.49" departLane="best" from="-296623215" to="-296623215"/>
    <trip id="bike94" type="bike_bicycle" depart="73.27" departLane="best" departSpeed="max" from="-138865617" to="-138865617"/>
    <trip id="bike95" type="bike_bicycle" depart="74.05" departLane="best" from="-405112895#1" to="-405112895#1"/>
    <trip id="bike96" type="bike_bicycle" depart="74.83" departLane="best" departSpeed="max" from="-279156922" to="-770767192#3"/>
    <trip id="bike98" type="bike_bicycle" depart="76.39" departLane="best" from="-1104180846#0" to="-1104180846#0"/>
    <trip id="bike99" type="bike_bicycle" depart="77.17" departLane="best" departSpeed="max" from="466369464#2" to="466369464#2"/>
    <trip id="bike101" type="bike_bicycle" depart="78.73" departLane="best" from="-136711832#0" to="-136711832#0"/>
    <trip id="bike102" type="bike_bicycle" depart="79.50" departLane="best" from="-266143638#0" to="-266143638#0"/>
    <trip id="bike103" type="bike_bicycle" depart="80.28" departLane="best" from="694756705#2" to="-112385801#4"/>
    <trip id="bike104" type="bike_bicycle" depart="81.06" departLane="best" from="-570104368#1" to="-570104368#1"/>
    <trip id="bike105" type="bike_bicycle" depart="81.84" departLane="best" from="290406161#4" to="38375825#0"/>
    <trip id="bike106" type="bike_bicycle" depart="82.62" departLane="best" from="958306814#3" to="-1008706402#0"/>
    <trip id="bike107" type="bike_bicycle" depart="83.40" departLane="best" departSpeed="max" from="911225803" to="911225803"/>
    <trip id="bike109" type="bike_bicycle" depart="84.96" departLane="best" from="-422195704" to="-422195704"/>
    <trip id="bike110" type="bike_bicycle" depart="85.74" departLane="best" from="944570461" to="115561260#0"/>
    <trip id="bike111" type="bike_bicycle" depart="86.52" departLane="best" from="1104180846#1" to="1104180846#1"/>
    <trip id="bike113" type="bike_bicycle" depart="88.08" departLane="best" from="1057896064" to="1057896064"/>
    <trip id="bike114" type="bike_bicycle" depart="88.86" departLane="best" from="931451540" to="931451540"/>
    <trip id="bike115" type="bike_bicycle" depart="89.64" departLane="best" from="-203589977#2" to="-203589977#2"/>
    <trip id="bike116" type="bike_bicycle" depart="90.42" departLane="best" from="115561096#3" to="203589971#1"/>
    <trip id="bike118" type="bike_bicycle" depart="91.98" departLane="best" from="-293601044#1" to="-293601044#1"/>
    <trip id="bike119" type="bike_bicycle" depart="92.76" departLane="best" from="115707750#0" to="115707750#0"/>
    <trip id="bike120" type="bike_bicycle" depart="93.54" departLane="best" departSpeed="max" from="-769930307" to="-769930307"/>
    <trip id="bike121" type="bike_bicycle" depart="94.31" departLane="best" from="1084012709#1" to="548247853#1"/>
    <trip id="bike122" type="bike_bicycle" depart="95.09" departLane="best" from="266157739#0" to="266157739#0"/>
    <trip id="bike123" type="bike_bicycle" depart="95.87" departLane="best" departSpeed="max" from="-264484544" to="-264484544"/>
    <trip id="bike124" type="bike_bicycle" depart="96.65" departLane="best" from="-116980612#3" to="-441708567#0"/>
    <trip id="bike125" type="bike_bicycle" depart="97.43" departLane="best" from="-413878161" to="-413878161"/>
    <trip id="bike126" type="bike_bicycle" depart="98.21" departLane="best" departSpeed="max" from="-1104044001#2" to="1065484132"/>
    <trip id="bike127" type="bike_bicycle" depart="98.99" departLane="best" from="995560534#2" to="995560534#2"/>
    <trip id="bike128" type="bike_bicycle" depart="99.77" departLane="best" from="-1104053726#0" to="-1104053726#0"/>
    <trip id="bike129" type="bike_bicycle" depart="100.55" departLane="best" from="290406161#4" to="824158743#0"/>
    <trip id="bike130" type="bike_bicycle" depart="101.33" departLane="best" departSpeed="max" from="530847889" to="530847889"/>
    <trip id="bike131" type="bike_bicycle" depart="102.11" departLane="best" from="-547236146#1" to="-547236146#1"/>
    <trip id="bike132" type="bike_bicycle" depart="102.89" departLane="best" from="417114123#3" to="254282914#0"/>
    <trip id="bike133" type="bike_bicycle" depart="103.67" departLane="best" from="115561205#4" to="115561205#4"/>
    <trip id="bike134" type="bike_bicycle" depart="104.45" departLane="best" from="-1022114287" to="-1022114287"/>
    <trip id="bike135" type="bike_bicycle" depart="105.23" departLane="best" from="-38691386#11" to="-438534121"/>
    <trip id="bike137" type="bike_bicycle" depart="106.79" departLane="best" from="115561224#0" to="-115561264#0"/>
    <trip id="bike138" type="bike_bicycle" depart="107.57" departLane="best" from="-115561054#1" to="-115561054#1"/>
    <trip id="bike140" type="bike_bicycle" depart="109.12" departLane="best" from="-253106086" to="-253106086"/>
    <trip id="bike141" type="bike_bicycle" depart="109.90" departLane="best" from="-357169468" to="-357169468"/>
    <trip id="bike142" type="bike_bicycle" depart="110.68" departLane="best" from="1024017994" to="694771197#4"/>
    <trip id="bike144" type="bike_bicycle" depart="112.24" departLane="best" departSpeed="max" from="-814534962" to="-405112886#1"/>
    <trip id="bike145" type="bike_bicycle" depart="113.02" departLane="best" from="-1004744416#1" to="328746446#5"/>
    <trip id="bike146" type="bike_bicycle" depart="113.80" departLane="best" from="-348587225" to="-348587225"/>
    <trip id="bike147" type="bike_bicycle" depart="114.58" departLane="best" from="115561074#8" to="115561074#8"/>
    <trip id="bike148" type="bike_bicycle" depart="115.36" departLane="best" from="-1026642568" to="-1026642568"/>
    <trip id="bike149" type="bike_bicycle" depart="116.14" departLane="best" from="-110589914#0" to="-110589914#0"/>
    <trip id="bike151" type="bike_bicycle" depart="117.70" departLane="best" from="115561276" to="115561276"/>
    <trip id="bike153" type="bike_bicycle" depart="119.26" departLane="best" from="-38691386#2" to="694603075#2"/>
    <trip id="bike154" type="bike_bicycle" depart="120.04" departLane="best" from="545665483#0" to="545665483#0"/>
    <trip id="bike156" type="bike_bicycle" depart="121.60" departLane="best" departSpeed="max" from="-115561168#4" to="-115561168#4"/>
    <trip id="bike157" type="bike_bicycle" depart="122.38" departLane="best" from="630461674" to="630461674"/>
    <trip id="bike161" type="bike_bicycle" depart="125.49" departLane="best" from="38375823#0" to="-624841690#2"/>
    <trip id="bike162" type="bike_bicycle" depart="126.27" departLane="best" from="-1051118113#5" to="-1051118113#5"/>
    <trip id="bike163" type="bike_bicycle" depart="127.05" departLane="best" departSpeed="max" from="-422195690" to="-422195690"/>
    <trip id="bike164" type="bike_bicycle" depart="127.83" departLane="best" from="357167354#1" to="547247957#4"/>
    <trip id="bike165" type="bike_bicycle" depart="128.61" departLane="best" from="1068837568#2" to="-38359858#1"/>
    <trip id="bike166" type="bike_bicycle" depart="129.39" departLane="best" departSpeed="max" from="296624565" to="-115561204"/>
    <trip id="bike168" type="bike_bicycle" depart="130.95" departLane="best" from="417235727#3" to="417235727#3"/>
    <trip id="bike169" type="bike_bicycle" depart="131.73" departLane="best" from="-960082441#1" to="466365029"/>
    <trip id="bike171" type="bike_bicycle" depart="133.29" departLane="best" from="1046414966" to="243006970"/>
    <trip id="bike172" type="bike_bicycle" depart="134.07" departLane="best" from="-417235705#2" to="547247957#7"/>
    <trip id="bike173" type="bike_bicycle" depart="134.85" departLane="best" from="944388522#0" to="410529592"/>
    <trip id="bike174" type="bike_bicycle" depart="135.63" departLane="best" from="-959986180" to="-959986180"/>
    <trip id="bike175" type="bike_bicycle" depart="136.41" departLane="best" from="959986179#3" to="115560947#2"/>
    <trip id="bike176" type="bike_bicycle" depart="137.18" departLane="best" from="-115561263" to="-115561263"/>
    <trip id="bike177" type="bike_bicycle" depart="137.96" departLane="best" from="945407748" to="945407748"/>
    <trip id="bike178" type="bike_bicycle" depart="138.74" departLane="best" from="931378513" to="377858000#1"/>
    <trip id="bike179" type="bike_bicycle" depart="139.52" departLane="best" from="1026368162#3" to="1026368162#3"/>
    <trip id="bike181" type="bike_bicycle" depart="141.08" departLane="best" from="115561179#10" to="111842182"/>
    <trip id="bike182" type="bike_bicycle" depart="141.86" departLane="best" from="624841690#1" to="115561234#2"/>
    <trip id="bike183" type="bike_bicycle" depart="142.64" departLane="best" departSpeed="max" from="264473955#0" to="264473955#0"/>
    <trip id="bike184" type="bike_bicycle" depart="143.42" departLane="best" from="-1004377216" to="-1004377216"/>
    <trip id="bike185" type="bike_bicycle" depart="144.20" departLane="best" departSpeed="max" from="1103862274" to="1103862274"/>
    <trip id="bike186" type="bike_bicycle" depart="144.98" departLane="best" from="254747695#1" to="254747695#1"/>
    <trip id="bike187" type="bike_bicycle" depart="145.76" departLane="best" from="529450289#1" to="115560889#0"/>
    <trip id="bike188" type="bike_bicycle" depart="146.54" departLane="best" from="116237696#1" to="547247957#0"/>
    <trip id="bike190" type="bike_bicycle" depart="148.10" departLane="best" from="221857696#5" to="221857696#5"/>
    <trip id="bike191" type="bike_bicycle" depart="148.88" departLane="best" from="-38691390#3" to="967089803#1"/>
    <trip id="bike192" type="bike_bicycle" depart="149.66" departLane="best" from="-694764175#0" to="-694764175#0"/>
    <trip id="bike193" type="bike_bicycle" depart="150.44" departLane="best" from="-115561179#17" to="1004737851#0"/>
    <trip id="bike194" type="bike_bicycle" depart="151.22" departLane="best" from="203589978#3" to="203589978#3"/>
    <trip id="bike195" type="bike_bicycle" depart="151.99" departLane="best" from="115684378#0" to="115684378#0"/>
    <trip id="bike196" type="bike_bicycle" depart="152.77" departLane="best" from="-38359854#3" to="-38359854#3"/>
    <trip id="bike197" type="bike_bicycle" depart="153.55" departLane="best" from="-1004359448#1" to="-1004359448#1"/>
    <trip id="bike198" type="bike_bicycle" depart="154.33" departLane="best" from="115561263" to="115561263"/>
    <trip id="bike199" type="bike_bicycle" depart="155.11" departLane="best" from="115676100" to="1069088366"/>
    <trip id="bike200" type="bike_bicycle" depart="155.89" departLane="best" from="-266143634#0" to="-266143634#0"/>
    <trip id="bike201" type="bike_bicycle" depart="156.67" departLane="best" from="694756705#4" to="694756705#4"/>
    <trip id="bike202" type="bike_bicycle" depart="157.45" departLane="best" from="-141821008#4" to="-141821008#4"/>
    <trip id="bike203" type="bike_bicycle" depart="158.23" departLane="best" from="-1125927212#3" to="-1125927212#1"/>
    <trip id="bike204" type="bike_bicycle" depart="159.01" departLane="best" from="-549790822" to="-549790822"/>
    <trip id="bike205" type="bike_bicycle" depart="159.79" departLane="best" from="38691386#9" to="38691386#9"/>
    <trip id="bike206" type="bike_bicycle" depart="160.57" departLane="best" from="-135704132#1" to="279250217#4"/>
    <trip id="bike207" type="bike_bicycle" depart="161.35" departLane="best" from="-178004660#3" to="1069288950"/>
    <trip id="bike208" type="bike_bicycle" depart="162.13" departLane="best" from="107489478#3" to="107489478#3"/>
    <trip id="bike209" type="bike_bicycle" depart="162.91" departLane="best" from="-115560924#1" to="-115560924#1"/>
    <trip id="bike212" type="bike_bicycle" depart="165.25" departLane="best" from="104591404#2" to="104591404#2"/>
    <trip id="bike213" type="bike_bicycle" depart="166.02" departLane="best" from="115681460#3" to="115681460#3"/>
    <trip id="bike214" type="bike_bicycle" depart="166.80" departLane="best" from="266143651#3" to="328746444#4"/>
    <trip id="bike215" type="bike_bicycle" depart="167.58" departLane="best" from="1013138962" to="1013138962"/>
    <trip id="bike216" type="bike_bicycle" depart="168.36" departLane="best" from="931378515#1" to="931378515#1"/>
    <trip id="bike217" type="bike_bicycle" depart="169.14" departLane="best" from="107489478#0" to="-1104180845#0"/>
    <trip id="bike220" type="bike_bicycle" depart="171.48" departLane="best" from="116625958#1" to="116625958#1"/>
    <trip id="bike221" type="bike_bicycle" depart="172.26" departLane="best" departSpeed="max" from="891010524" to="891010524"/>
    <trip id="bike223" type="bike_bicycle" depart="173.82" departLane="best" from="-221857696#0" to="110596398#0"/>
    <trip id="bike224" type="bike_bicycle" depart="174.60" departLane="best" from="417114095#3" to="417114095#3"/>
    <trip id="bike225" type="bike_bicycle" depart="175.38" departLane="best" from="571179230" to="-291878856#1"/>
    <trip id="bike226" type="bike_bicycle" depart="176.16" departLane="best" departSpeed="max" from="-328746435" to="-328746435"/>
    <trip id="bike229" type="bike_bicycle" depart="178.50" departLane="best" from="-115561299#7" to="39258026#2"/>
    <trip id="bike232" type="bike_bicycle" depart="180.83" departLane="best" departSpeed="max" from="1104044003" to="115561653#1"/>
    <trip id="bike233" type="bike_bicycle" depart="181.61" departLane="best" from="-254282907#1" to="-254282907#1"/>
    <trip id="bike234" type="bike_bicycle" depart="182.39" departLane="best" from="185549291#0" to="114531734#2"/>
    <trip id="bike235" type="bike_bicycle" depart="183.17" departLane="best" departSpeed="max" from="-694813361" to="-694813361"/>
    <trip id="bike236" type="bike_bicycle" depart="183.95" departLane="best" from="723312334#6" to="254282914#4"/>
    <trip id="bike237" type="bike_bicycle" depart="184.73" departLane="best" from="-770767192#5" to="694771197#1"/>
    <trip id="bike238" type="bike_bicycle" depart="185.51" departLane="best" departSpeed="max" from="251678534#1" to="251678534#1"/>
    <trip id="bike239" type="bike_bicycle" depart="186.29" departLane="best" from="-459456564#2" to="30951906"/>
    <trip id="bike240" type="bike_bicycle" depart="187.07" departLane="best" departSpeed="max" from="-570284062#2" to="-570284062#2"/>
    <trip id="bike241" type="bike_bicycle" depart="187.85" departLane="best" from="-512824053#14" to="-512824053#14"/>
    <trip id="bike242" type="bike_bicycle" depart="188.63" departLane="best" departSpeed="max" from="931123663" to="931123663"/>
    <trip id="bike243" type="bike_bicycle" depart="189.41" departLane="best" departSpeed="max" from="-767603788" to="-767603788"/>
    <trip id="bike244" type="bike_bicycle" depart="190.19" departLane="best" from="110981102#2" to="110981102#2"/>
    <trip id="bike245" type="bike_bicycle" depart="190.97" departLane="best" from="-251566881#2" to="-251566881#2"/>
    <trip id="bike246" type="bike_bicycle" depart="191.75" departLane="best" from="-87497334#10" to="-87497334#10"/>
    <trip id="bike248" type="bike_bicycle" depart="193.31" departLane="best" from="-694766185#1" to="-694766185#1"/>
    <trip id="bike250" type="bike_bicycle" depart="194.86" departLane="best" from="115561277#2" to="115561277#2"/>
    <trip id="bike251" type="bike_bicycle" depart="195.64" departLane="best" from="-683745965#1" to="115561148"/>
    <trip id="bike252" type="bike_bicycle" depart="196.42" departLane="best" from="-1055064240#0" to="-1055064240#0"/>
    <trip id="bike253" type="bike_bicycle" depart="197.20" departLane="best" from="-115561234#2" to="1066897503"/>
    <trip id="bike254" type="bike_bicycle" depart="197.98" departLane="best" from="-1075875164#1" to="-87497332#4"/>
    <trip id="bike255" type="bike_bicycle" depart="198.76" departLane="best" from="-530847889" to="-530847889"/>
    <trip id="bike256" type="bike_bicycle" depart="199.54" departLane="best" from="-279250236#2" to="-87497332#4"/>
    <trip id="bike257" type="bike_bicycle" depart="200.32" departLane="best" from="266143655#6" to="266143655#6"/>
    <trip id="bike258" type="bike_bicycle" depart="201.10" departLane="best" departSpeed="max" from="-279250217#5" to="-279250217#5"/>
    <trip id="bike259" type="bike_bicycle" depart="201.88" departLane="best" departSpeed="max" from="-1030215624" to="115560985"/>
    <trip id="bike260" type="bike_bicycle" depart="202.66" departLane="best" from="-683745965#1" to="-683745965#1"/>
    <trip id="bike261" type="bike_bicycle" depart="203.44" departLane="best" departSpeed="max" from="38359863#0" to="38359863#0"/>
    <trip id="bike262" type="bike_bicycle" depart="204.22" departLane="best" from="695310604#1" to="293601043#1"/>
    <trip id="bike263" type="bike_bicycle" depart="205.00" departLane="best" from="-87494509#5" to="251678533#2"/>
    <trip id="bike264" type="bike_bicycle" depart="205.78" departLane="best" departSpeed="max" from="-1030215632" to="-115707340#3"/>
    <trip id="bike265" type="bike_bicycle" depart="206.56" departLane="best" from="115561168#6" to="185549301#3"/>
    <trip id="bike266" type="bike_bicycle" depart="207.34" departLane="best" from="115516481#2" to="115516481#2"/>
    <trip id="bike267" type="bike_bicycle" depart="208.12" departLane="best" from="165344847#0" to="165344847#0"/>
    <trip id="bike268" type="bike_bicycle" depart="208.89" departLane="best" from="115675457" to="-115561673#1"/>
    <trip id="bike269" type="bike_bicycle" depart="209.67" departLane="best" from="266143610#1" to="115561258#1"/>
    <trip id="bike270" type="bike_bicycle" depart="210.45" departLane="best" from="38691393#4" to="38691393#4"/>
    <trip id="bike272" type="bike_bicycle" depart="212.01" departLane="best" from="405112886#2" to="203589978#4"/>
    <trip id="bike273" type="bike_bicycle" depart="212.79" departLane="best" from="931123662" to="-958306814#1"/>
    <trip id="bike274" type="bike_bicycle" depart="213.57" departLane="best" from="203589971#0" to="-115560977"/>
    <trip id="bike275" type="bike_bicycle" depart="214.35" departLane="best" from="148331415#2" to="148331415#2"/>
    <trip id="bike276" type="bike_bicycle" depart="215.13" departLane="best" from="328782873#2" to="328782873#2"/>
    <trip id="bike278" type="bike_bicycle" depart="216.69" departLane="best" from="965875489#0" to="965875489#0"/>
    <trip id="bike279" type="bike_bicycle" depart="217.47" departLane="best" from="293290811#1" to="667953214#1"/>
    <trip id="bike281" type="bike_bicycle" depart="219.03" departLane="best" from="1066053872#1" to="1066053872#1"/>
    <trip id="bike283" type="bike_bicycle" depart="220.59" departLane="best" from="931451540" to="931451540"/>
    <trip id="bike284" type="bike_bicycle" depart="221.37" departLane="best" from="115561383" to="453743053"/>
    <trip id="bike285" type="bike_bicycle" depart="222.15" departLane="best" from="185549293#4" to="1026642572"/>